%chk=16_2.chk
%mem= 4gb
%nproc= 8
# mp2/6-311g(d,p)

Title Card 

0 1
O -0.00112900 1.35461400 1.41194900
H -0.17070800 1.42342900 -0.36209000
H 0.86497900 1.77043000 1.58248200
O -4.12547600 -0.02885600 1.58182900
H -4.81421300 0.07773300 2.24415700
H -3.59930700 0.81445000 1.59402400
O 2.57288000 2.43031700 1.34326700
H 2.86723400 3.28860000 1.66198000
H 2.56327400 2.48945700 0.34911200
O 4.12784200 0.02989600 -1.57987700
H 3.60072400 -0.81278100 -1.59180400
H 4.81599500 -0.07746000 -2.24270500
O -2.85246700 2.20511100 -1.51491000
H -3.37847000 1.36295200 -1.51813900
H -3.29927300 2.80248600 -2.12138900
O -2.46887300 -2.29761500 1.30031200
H -1.55669500 -2.05064800 1.53647700
H -3.01999200 -1.53556000 1.55546700
O 2.46711400 2.29683800 -1.30082400
H 1.55552400 2.04883800 -1.53825000
H 3.01965400 1.53570100 -1.55550400
O 2.85333400 -2.20324400 1.51731000
H 3.38005400 -1.36148800 1.52067100
H 3.29874500 -2.80078500 2.12466800
O 2.66634900 -2.17638500 -1.36468200
H 1.71958600 -1.99067400 -1.50871800
H 2.73081100 -2.40382600 -0.42221900
O -4.18872900 -0.08083200 -1.25736900
H -3.70109200 -0.90165500 -1.44759800
H -4.36351300 -0.12852200 -0.30063000
O 0.19858200 -1.38179500 1.33940100
H 0.12691300 0.39003800 1.54237900
H 1.07094500 -1.75357300 1.57181600
O -2.66557800 2.17830300 1.36668500
H -1.71906000 1.99044700 1.50965400
H -2.73036000 2.40626700 0.42434100
O 4.18939600 0.08172800 1.26004400
H 3.70129700 0.90263200 1.44873800
H 4.36657100 0.12936200 0.30381100
O -0.00001400 -1.35745900 -1.41583300
H 0.17056800 -1.42697900 0.35827600
H -0.86644700 -1.77332000 -1.58503600
O -2.57442300 -2.42979600 -1.34398900
H -2.56411900 -2.48927700 -0.34985200
H -2.86690600 -3.28868800 -1.66273500
O -0.19923100 1.37955900 -1.34327100
H -1.07148200 1.75228800 -1.57466200
H -0.12784800 -0.39294300 -1.54708000
