%chk=16_3.chk
%mem= 4gb
%nproc= 8
# mp2/6-311g(d,p)

Title Card 

0 1
O -0.00860300 1.33953800 -1.43878200
H -0.12819400 0.37266500 -1.55759300
H -0.87664800 1.74274900 -1.62754400
O 2.63343100 -2.27663500 1.50577100
H 3.01381900 -2.89831700 2.13298800
H 3.23415100 -1.48486100 1.50456800
O -4.19448700 0.00475700 -1.24921300
H -3.71517300 0.82475200 -1.46283400
H -4.36942000 0.07635600 -0.29421300
O -2.60787200 2.37028500 -1.41410000
H -2.60237300 2.45738200 -0.42210300
H -2.92161800 3.21222500 -1.75696500
O 0.02861300 -1.31392700 1.41635600
H 0.90813700 -1.69578600 1.60342700
H 0.12657000 -0.34478500 1.53781100
O 4.18239800 -0.13468600 1.25701300
H 3.78308000 0.73185300 1.45111100
H 4.36634500 -0.10286800 0.30149900
O -2.63366200 -2.16707400 1.42096200
H -1.68752500 -1.96916400 1.55061900
H -2.70422800 -2.41966700 0.48524500
O 2.48151400 -2.27025900 -1.37353300
H 1.53987300 -2.07121300 -1.52985700
H 2.52359300 -2.49547400 -0.42903100
O -2.83644300 -2.27189300 -1.45451600
H -3.28102100 -2.89004900 -2.04146500
H -3.37223000 -1.43607000 -1.47510000
O 2.66330300 2.18730900 -1.27229500
H 1.74319700 1.96765100 -1.50606700
H 3.18116600 1.40346400 -1.53059400
O 2.81782000 2.36358600 1.36666700
H 3.18448500 3.19925000 1.66991800
H 2.80299200 2.40975700 0.37231200
O 0.16787200 1.42818000 1.31539800
H 0.15163300 1.45077800 0.33249900
H 1.02113500 1.83972500 1.54645100
O -2.50971500 2.31025700 1.23310100
H -1.59468300 2.08189600 1.47710400
H -3.05065700 1.54904100 1.51129100
O -4.12712800 0.02426700 1.59225500
H -4.80951900 -0.07462900 2.26228700
H -3.58750700 -0.80967100 1.62360500
O 4.13729800 -0.20016200 -1.58133300
H 3.52773100 -0.98427800 -1.60133000
H 4.81618700 -0.37448700 -2.23938300
O -0.19460100 -1.40048200 -1.32446200
H -1.06136500 -1.79412600 -1.54092500
H -0.15983200 -1.41857000 -0.34204300