%chk=16_5.chk
%mem= 4gb
%nproc= 8
# mp2/6-311g(d,p)

Title Card 

0 1
O -1.47898300 1.41406700 1.34080300
H -1.45044100 1.49686100 0.36223900
H -2.40207700 1.62064300 1.57178600
O 1.47898300 -1.41406700 1.34080300
H 2.40207700 -1.62064300 1.57178600
H 1.45044100 -1.49686100 0.36223900
O 4.15918400 1.39000800 1.27951500
H 4.28804200 0.45245000 1.50630400
H 3.23997900 1.57669900 1.53183800
O 1.32197700 1.33401000 1.41420100
H 0.42479200 1.59995500 1.67545900
H 1.32600200 0.35477300 1.49428500
O 1.32197700 -1.33401000 -1.41420100
H 0.42479200 -1.59995500 -1.67545900
H 1.32600200 -0.35477300 -1.49428500
O -4.15918400 1.39000800 -1.27951500
H -4.28804200 0.45245000 -1.50630400
H -3.23997900 1.57669900 -1.53183800
O -4.28844400 -1.45801100 -1.38716600
H -4.32892700 -1.52043700 -0.39770300
H -4.96664000 -2.05158500 -1.72209900
O 4.28844400 1.45801100 -1.38716600
H 4.96664000 2.05158500 -1.72209900
H 4.32892700 1.52043700 -0.39770300
O 4.28844400 -1.45801100 1.38716600
H 4.32892700 -1.52043700 0.39770300
H 4.96664000 -2.05158500 1.72209900
O -4.15918400 -1.39000800 1.27951500
H -4.28804200 -0.45245000 1.50630400
H -3.23997900 -1.57669900 1.53183800
O 1.47898300 1.41406700 -1.34080300
H 1.45044100 1.49686100 -0.36223900
H 2.40207700 1.62064300 -1.57178600
O -1.47898300 -1.41406700 -1.34080300
H -2.40207700 -1.62064300 -1.57178600
H -1.45044100 -1.49686100 -0.36223900
O -4.28844400 1.45801100 1.38716600
H -4.32892700 1.52043700 0.39770300
H -4.96664000 2.05158500 1.72209900
O 4.15918400 -1.39000800 -1.27951500
H 4.28804200 -0.45245000 -1.50630400
H 3.23997900 -1.57669900 -1.53183800
O -1.32197700 1.33401000 -1.41420100
H -0.42479200 1.59995500 -1.67545900
H -1.32600200 0.35477300 -1.49428500
O -1.32197700 -1.33401000 1.41420100
H -1.32600200 -0.35477300 1.49428500
H -0.42479200 -1.59995500 1.67545900
