%chk=16_6.chk
%mem= 4gb
%nproc= 8
# mp2/aug-cc-pvdz

Title Card 

0 1
O -2.71043900 -1.41343600 0.73109300
H -2.81920000 -0.60008900 0.23827400
H -2.12920100 -1.94669700 0.18885100
O -1.68485200 -0.93402800 3.09844400
H -2.31603800 -1.28301600 3.72776400
H -2.06802300 -1.12614000 2.24257900
O -0.92168100 1.64650200 3.03325800
H -1.29943000 0.77410000 3.14485000
H 0.01986400 1.51663300 3.14665300
O -1.78571900 0.59005000 -3.03452900
H -1.00445100 1.13596400 -3.12300800
H -1.46606500 -0.30571100 -3.14253400
O 0.92168100 2.91924600 -0.62530100
H 1.09066100 3.85676300 -0.53181800
H 0.08799200 2.77970200 -0.17616600
O 0.61590800 1.83181400 -3.04144500
H 0.75667300 2.22910100 -2.18203800
H 0.84934000 2.51958200 -3.66491600
O -1.36483500 2.67103000 0.61406800
H -1.95988200 2.03012600 0.22497700
H -1.26847100 2.38795500 1.52336100
O 2.90480500 -0.86693900 -0.67762000
H 3.79931800 -1.15511600 -0.85936800
H 2.50270600 -0.77329100 -1.54120500
O 0.92168100 -1.64650200 3.03325800
H 1.29943000 -0.77410000 3.14485000
H -0.01986400 -1.51663300 3.14665300
O 1.78571900 -0.59005000 -3.03452900
H 1.00445100 -1.13596400 -3.12300800
H 1.46606500 0.30571100 -3.14253400
O 1.68485200 0.93402800 3.09844400
H 2.31603800 1.28301600 3.72776400
H 2.06802300 1.12614000 2.24257900
O -2.90480500 0.86693900 -0.67762000
H -3.79931800 1.15511600 -0.85936800
H -2.50270600 0.77329100 -1.54120500
O 1.36483500 -2.67103000 0.61406800
H 1.26847100 -2.38795500 1.52336100
H 1.95988200 -2.03012600 0.22497700
O 2.71043900 1.41343600 0.73109300
H 2.81920000 0.60008900 0.23827400
H 2.12920100 1.94669700 0.18885100
O -0.92168100 -2.91924600 -0.62530100
H -1.09066100 -3.85676300 -0.53181800
H -0.08799200 -2.77970200 -0.17616600
O -0.61590800 -1.83181400 -3.04144500
H -0.75667300 -2.22910100 -2.18203800
H -0.84934000 -2.51958200 -3.66491600
