%chk=20_2.chk
%mem= 4gb
%nproc= 8
# mp2/6-311g(d,p)

Title Card 

0 1
O 5.54855000 18.10721000 5.96585000
H 6.12161000 17.85667000 6.71812000
H 4.67595000 18.26592000 6.37615000
O 4.73546000 22.53245000 12.73349000
H 4.95779000 21.94621000 11.96305000
H 3.84862000 22.26975000 13.01049000
O 4.81301000 18.76901000 9.67526000
H 4.19546000 18.87227000 8.92577000
H 5.55783000 18.26314000 9.29845000
O 5.37095000 25.20789000 12.05996000
H 5.05564000 24.31376000 12.29566000
H 6.07788000 25.39627000 12.70985000
O 7.68977000 21.69182000 6.90243000
H 6.94227000 22.09052000 7.40969000
H 7.26791000 21.31088000 6.10435000
O 5.58818000 22.71098000 8.35514000
H 5.54070000 22.15930000 9.17512000
H 5.72592000 23.62047000 8.68831000
O 7.50323000 25.47349000 13.89623000
H 8.33694000 25.22712000 13.41243000
H 7.72431000 26.24816000 14.42732000
O 7.04838000 17.62888000 8.31362000
H 7.71822000 18.34941000 8.46419000
H 7.51628000 16.80158000 8.47941000
O 6.15431000 20.48408000 4.92750000
H 6.29815000 20.40779000 3.97575000
H 5.98466000 19.55532000 5.25019000
O 9.09332000 21.86012000 13.48754000
H 8.26157000 22.14675000 13.96302000
H 9.56989000 21.28853000 14.10302000
O 9.77263000 23.41417000 7.41271000
H 10.61483000 22.95645000 7.31397000
H 9.09591000 22.77989000 7.08073000
O 8.69799000 19.70839000 8.62526000
H 8.66886000 20.18281000 9.48075000
H 8.37716000 20.37795000 7.98390000
O 8.76595000 23.92329000 9.93359000
H 7.94541000 24.42801000 9.74211000
H 9.21180000 23.81120000 9.06228000
O 3.26853000 19.11024000 7.31943000
H 2.32186000 18.94330000 7.22444000
H 3.41405000 20.03944000 6.99499000
O 5.60208000 21.16027000 10.60170000
H 6.57894000 21.13115000 10.74734000
H 5.32864000 20.25085000 10.30506000
O 6.30507000 25.14687000 9.58163000
H 5.93064000 25.21997000 10.50593000
H 6.17016000 26.01696000 9.18191000
O 8.28252000 21.39790000 10.87856000
H 8.61861000 21.42242000 11.79992000
H 8.45165000 22.30665000 10.53022000
O 6.87149000 22.80135000 14.58213000
H 6.09540000 22.62854000 14.01292000
H 7.00020000 23.76843000 14.52680000
O 3.93471000 21.52862000 6.39305000
H 4.63941000 21.31009000 5.75229000
H 4.39429000 22.05612000 7.07718000
O 9.61320000 24.51046000 12.56141000
H 9.65940000 23.59112000 12.88672000
H 9.44639000 24.41006000 11.60230000