%chk=20_3.chk
%mem= 4gb
%nproc= 8
# mp2/aug-cc-pvdz

Title Card 

0 1
O 13.85498000 -6.08799000 -2.27592000
H 13.11467000 -6.61761000 -1.89215000
H 14.62454000 -6.69024000 -2.21496000
O 15.32709000 -9.55914000 -4.40930000
H 14.71345000 -10.27982000 -4.16654000
H 14.84271000 -9.05904000 -5.09619000
O 12.65392000 -3.84651000 -1.08783000
H 13.31904000 -4.47169000 -1.43844000
H 11.93031000 -4.42719000 -0.75686000
O 13.42534000 -9.72566000 -1.15097000
H 12.73864000 -9.04047000 -1.04820000
H 14.24602000 -9.21586000 -1.29114000
O 8.87968000 -4.02032000 -2.17039000
H 8.63961000 -4.58144000 -2.93179000
H 9.61510000 -3.45333000 -2.50662000
O 13.63666000 -8.18378000 -6.23696000
H 13.37215000 -7.31861000 -5.83737000
H 13.89701000 -7.98256000 -7.14491000
O 8.82404000 -5.64014000 -4.50816000
H 8.07576000 -5.93517000 -5.04036000
H 9.34155000 -6.45700000 -4.30365000
O 13.26713000 -11.22748000 -3.39146000
H 13.25095000 -10.76368000 -2.51567000
H 13.22588000 -12.17072000 -3.19108000
O 10.65693000 -7.57250000 -3.87860000
H 10.79901000 -8.45410000 -4.30213000
H 11.41704000 -7.04790000 -4.22967000
O 8.24499000 -2.13807000 -0.09820000
H 8.81671000 -1.42189000 -0.43625000
H 8.17955000 -2.75519000 -0.85018000
O 10.41079000 -5.25093000 -0.23588000
H 10.15009000 -4.80935000 0.59734000
H 9.77276000 -4.90251000 -0.90224000
O 11.03934000 -2.48263000 -2.86067000
H 10.86555000 -1.62320000 -2.42848000
H 11.71962000 -2.90820000 -2.28904000
O 9.73973000 -3.39692000 1.74247000
H 9.09353000 -2.91382000 1.16000000
H 9.31987000 -3.46523000 2.60925000
O 11.48180000 -9.83049000 -5.17223000
H 11.99873000 -10.40915000 -4.58117000
H 12.16431000 -9.39304000 -5.71441000
O 10.39509000 -0.45218000 -1.00269000
H 11.01810000 -0.82556000 -0.32233000
H 10.52922000 0.50413000 -0.99171000
O 15.66774000 -8.20364000 -2.13929000
H 15.64275000 -8.68442000 -3.01320000
H 16.59210000 -8.19332000 -1.86522000
O 11.93632000 -1.78611000 0.73746000
H 12.43452000 -2.44791000 0.22060000
H 11.32196000 -2.32150000 1.27375000
O 12.77331000 -6.06943000 -4.80406000
H 12.28380000 -5.23147000 -5.00723000
H 13.25694000 -5.93329000 -3.95690000
O 11.10713000 -4.00168000 -5.27481000
H 10.24746000 -4.44486000 -5.14739000
H 11.12088000 -3.31334000 -4.58309000
O 11.67680000 -7.48507000 -1.31943000
H 11.17488000 -7.58946000 -2.15965000
H 11.14976000 -6.86252000 -0.77884000