%chk=20_5.chk
%mem= 4gb
%nproc= 8
# mp2/6-311g(d,p)

Title Card 

0 1
O 1.28142300 4.07186500 1.48256700
H 0.29484200 3.97213300 1.54706500
H 1.50106100 4.82029000 2.05121500
O -1.46442100 4.00935300 -1.43628200
H -0.47326000 3.96188500 -1.51102700
H -1.72563100 4.75799500 -1.98676700
O -4.18493600 -0.90583300 -1.34137600
H -3.70654800 -0.07481100 -1.51370700
H -4.39607200 -0.87063000 -0.38705600
O 2.51061400 1.35855200 -1.37357300
H 3.20522400 0.71182200 -1.60821400
H 2.53692900 1.39357100 -0.38660200
O 1.21796900 3.91103700 -1.37156000
H 1.72998200 3.11186900 -1.59469100
H 1.40835100 4.06205700 -0.42563300
O 2.92269000 -3.13257300 1.56185600
H 3.43007200 -3.73608600 2.11909200
H 3.40705400 -2.27131700 1.59425600
O 4.21450500 -0.74584100 1.32423000
H 4.38715800 -0.70575000 0.36227700
H 3.71578400 0.06843800 1.50980600
O -2.69409300 -3.15884300 1.30522900
H -2.69825600 -3.36189400 0.35010100
H -1.74731000 -3.09699500 1.53106600
O 0.07829700 0.12656200 -1.32090100
H 0.06107000 0.14237300 -0.33211400
H 0.93430100 0.57110000 -1.52809200
O -4.31204100 -1.02546800 1.49016300
H -5.07151700 -1.23111800 2.05020300
H -3.72408100 -1.82552300 1.53001900
O 0.01553100 -2.58620700 -1.41309500
H 0.01601100 -1.60793500 -1.54366600
H -0.89086700 -2.87011900 -1.64421400
O 4.26401100 -0.84755900 -1.51595400
H 3.71997900 -1.68140700 -1.53503700
H 5.03616400 -1.03246700 -2.06540800
O -0.03450400 0.08604100 1.41867800
H -0.95246300 0.41558600 1.56379600
H -0.04286600 -0.88788400 1.56012600
O -2.38199300 1.33464600 -1.39771000
H -2.22800200 2.28498500 -1.56732400
H -1.49587100 0.93053800 -1.54133000
O 2.80091300 -3.08544700 -1.29985200
H 1.84629400 -3.04118600 -1.50012300
H 2.83814000 -3.29151700 -0.34616000
O 0.11685200 -2.63784600 1.34014700
H 1.00818900 -2.92766700 1.61029800
H 0.13029200 -2.69249800 0.35445200
O -1.39055000 3.79890800 1.38604900
H -1.84992900 2.96481200 1.59451300
H -1.58764500 3.95504400 0.44117600
O 2.31914600 1.45549000 1.36829800
H 2.10934400 2.38720500 1.57747900
H 1.47091500 0.98442000 1.53240400
O -2.74341100 -3.17113200 -1.56407000
H -3.28638600 -2.33856000 -1.58136000
H -3.19352700 -3.78367000 -2.15819500
O -2.52608200 1.15624100 1.34898100
H -3.23494200 0.52493200 1.57909000
H -2.56133400 1.21241100 0.36370400

