%chk=25_3.chk
%mem= 4gb
%nproc= 8
# mp2/6-311g(d,p)

Title Card 

0 1
O 12.01291000 10.52829000 -15.41851000
H 12.46524000 9.78700000 -15.86753000
H 12.67307000 11.24570000 -15.45025000
O 15.89946000 6.98274000 -12.82697000
H 15.17700000 7.09663000 -12.17159000
H 16.69489000 7.36360000 -12.39049000
O 17.30347000 10.92072000 -11.63290000
H 16.48758000 11.14898000 -12.13638000
H 17.11091000 11.11855000 -10.69253000
O 17.79381000 10.11660000 -15.63253000
H 18.27321000 10.57351000 -14.89612000
H 17.00983000 9.68151000 -15.21764000
O 12.73114000 6.02153000 -15.32256000
H 12.38126000 6.35305000 -14.45013000
H 12.05765000 5.41228000 -15.64983000
O 14.19999000 10.33041000 -8.57179000
H 13.74279000 10.37835000 -9.43152000
H 14.26909000 9.37195000 -8.38790000
O 13.82722000 7.51062000 -11.05940000
H 13.68072000 8.48363000 -11.10702000
H 14.06711000 7.34579000 -10.12657000
O 15.05613000 11.17815000 -13.14772000
H 14.81590000 11.84208000 -13.82237000
H 15.17194000 10.35388000 -13.69193000
O 16.97292000 6.75084000 -17.28544000
H 16.49790000 6.30172000 -16.55059000
H 17.81048000 7.07050000 -16.89796000
O 14.82457000 7.57734000 -8.42164000
H 14.78250000 6.95560000 -7.68499000
H 15.79215000 7.71526000 -8.60511000
O 19.29572000 8.02469000 -16.21754000
H 18.77688000 8.87141000 -16.08609000
H 19.93811000 8.22555000 -16.91141000
O 15.55707000 5.51967000 -15.23895000
H 14.58351000 5.55293000 -15.28477000
H 15.75552000 5.84845000 -14.34273000
O 20.23941000 8.29693000 -13.56642000
H 20.00082000 8.06299000 -14.48948000
H 21.07073000 7.83865000 -13.39149000
O 15.91098000 11.21614000 -17.40623000
H 15.68215000 10.38159000 -17.85428000
H 16.69719000 10.97938000 -16.87499000
O 15.52284000 9.00325000 -14.61036000
H 14.82439000 8.75934000 -15.26803000
H 15.63016000 8.21454000 -14.02543000
O 11.05584000 9.71037000 -13.02301000
H 10.13510000 9.99164000 -12.95385000
H 11.36940000 10.05182000 -13.89786000
O 17.36665000 8.22673000 -8.96462000
H 17.72327000 8.09115000 -9.86420000
H 17.37450000 9.19504000 -8.84977000
O 11.85454000 6.97159000 -12.99387000
H 12.47948000 6.97219000 -12.24221000
H 11.47946000 7.87303000 -12.99165000
O 19.30596000 11.09254000 -13.59455000
H 18.74283000 11.19494000 -12.80166000
H 19.82460000 10.28722000 -13.42470000
O 18.03895000 8.28753000 -11.72579000
H 18.83536000 8.21016000 -12.28374000
H 17.78312000 9.24052000 -11.75751000
O 16.76079000 11.04705000 -8.90954000
H 17.00683000 11.75548000 -8.30194000
H 15.79495000 10.87055000 -8.74301000
O 15.37959000 8.52556000 -18.44530000
H 16.03201000 7.87563000 -18.05718000
H 15.34391000 8.32320000 -19.38826000
O 13.25679000 10.20325000 -11.28694000
H 12.40085000 10.15219000 -11.75397000
H 13.85814000 10.63302000 -11.93577000
O 14.23321000 12.37168000 -15.59894000
H 14.81416000 11.96470000 -16.29108000
H 14.10893000 13.28393000 -15.88918000
O 13.57680000 8.40813000 -16.40047000
H 13.23972000 7.51059000 -16.19129000
H 14.04612000 8.34785000 -17.25986000
