%chk=25_4.chk
%mem= 4gb
%nproc= 8
# mp2/6-311g(d,p)

Title Card 

0 1
O -10.44677000 -7.09228000 13.13781000
H -11.39792000 -6.92355000 13.34857000
H -10.04071000 -7.10169000 14.02932000
O -11.62115000 -8.97676000 11.31051000
H -12.32226000 -9.37952000 11.86924000
H -11.04293000 -8.50840000 11.93905000
O -13.05072000 -6.67104000 13.75389000
H -13.12564000 -5.75629000 14.11923000
H -13.59716000 -6.65667000 12.93556000
O -13.20738000 -8.81516000 15.46809000
H -13.96656000 -8.61519000 16.04821000
H -13.16163000 -8.02389000 14.88067000
O -9.90385000 -4.73227000 11.87711000
H -9.02797000 -4.42763000 12.18862000
H -10.03066000 -5.61287000 12.31242000
O -16.38346000 -6.44042000 14.90776000
H -15.91491000 -6.77482000 15.69478000
H -16.28964000 -7.14328000 14.23213000
O -9.71904000 -6.78309000 15.85800000
H -9.97821000 -7.56348000 16.38220000
H -10.36262000 -6.09398000 16.14272000
O -14.58782000 -6.56721000 11.43984000
H -14.88650000 -5.62522000 11.32575000
H -14.03169000 -6.78984000 10.66199000
O -7.68208000 -4.82434000 15.65430000
H -8.14689000 -4.16932000 16.20790000
H -8.21485000 -5.63617000 15.76576000
O -9.41316000 -2.79906000 16.75161000
H -9.45836000 -2.32587000 15.87785000
H -9.23608000 -2.11610000 17.41004000
O -15.05986000 -7.55120000 17.21226000
H -14.27448000 -7.18797000 17.69284000
H -15.65720000 -7.86360000 17.90380000
O -15.87127000 -3.90776000 14.21764000
H -16.57461000 -3.36843000 14.59992000
H -16.10109000 -4.84520000 14.46548000
O -15.40642000 -4.02049000 11.37547000
H -14.69077000 -3.42809000 11.07073000
H -15.56544000 -3.80118000 12.31195000
O -13.14673000 -4.11165000 14.70021000
H -14.08828000 -3.84692000 14.64500000
H -12.67010000 -3.58822000 14.01144000
O -11.63997000 -2.85903000 12.79915000
H -11.04153000 -3.57193000 12.45517000
H -12.14142000 -2.57862000 12.01029000
O -11.52378000 -4.65955000 9.53090000
H -11.88853000 -5.56462000 9.49550000
H -10.82084000 -4.71010000 10.20756000
O -13.12802000 -2.66223000 10.36517000
H -13.15506000 -1.96266000 9.70203000
H -12.57913000 -3.38616000 9.96455000
O -7.65556000 -3.69772000 13.21495000
H -6.74610000 -3.60809000 12.90694000
H -7.59408000 -4.17511000 14.08620000
O -11.40251000 -4.78246000 16.76696000
H -10.79313000 -4.02718000 16.88854000
H -12.06752000 -4.46405000 16.12340000
O -13.69327000 -10.02759000 12.89526000
H -14.54940000 -9.57607000 12.78445000
H -13.50210000 -9.87051000 13.83755000
O -12.75166000 -6.75709000 18.40356000
H -12.29634000 -5.98349000 18.03016000
H -12.13746000 -7.49430000 18.21601000
O -9.46204000 -1.75045000 14.27795000
H -10.27663000 -1.94158000 13.77273000
H -8.77512000 -2.25736000 13.80314000
O -12.69106000 -7.28625000 9.56595000
H -12.24861000 -7.95009000 10.16650000
H -12.79261000 -7.74020000 8.71821000
O -16.06274000 -8.31396000 12.78022000
H -15.63827000 -7.68380000 12.14107000
H -16.88112000 -8.60303000 12.35646000
O -11.15679000 -8.82698000 17.25789000
H -11.83867000 -8.96113000 16.55414000
H -10.86054000 -9.70970000 17.51178000
